[TITLE]

[JUNCTIONS]
;ID                      Elevation       Demand Pattern                 
 Junction-1799           224.14698163    1.9153213478 DynamicDemand              ;
 Junction-50729          76.394350394    5.5919623037 DynamicDemand              ;
 Junction-14702          73.622047244   0.53827697388 DynamicDemand              ;
 Junction-27485            106.332021   0.57138829893 DynamicDemand              ;
 Junction-14239          41.923664698               0 DynamicDemand              ;
 Junction-456186         197.04784777               0 DynamicDemand              ;
 Junction-36552          139.29352034   0.28394268876 DynamicDemand              ;
 Junction-393            48.353021654               0 DynamicDemand              ;
 Junction-15040          119.93657152   0.76552305676 DynamicDemand              ;
 Junction-473767         86.631496063               0 DynamicDemand              ;
 Junction-37296          137.20472441               0 DynamicDemand              ;
 Junction-456557         39.550882546               0 DynamicDemand              ;
 Junction-2115           116.74868766               0 DynamicDemand              ;
 Junction-26929          131.26641076    0.3697246376 DynamicDemand              ;
 Junction-475006         317.60170604               0 DynamicDemand              ;
 Junction-475320         233.81233596               0 DynamicDemand              ;
 Junction-475130         229.29790026    0.7741773332 DynamicDemand              ;
 Junction-55536           41.99761811    3.8256339934 DynamicDemand              ;
 Junction-50748           143.0511811               0 DynamicDemand              ;
 Junction-44343          137.92650919    1.3329012239 DynamicDemand              ;
 Junction-468775         91.076115486    1.3979033991 DynamicDemand              ;
 Junction-37628          319.94445538    1.7156706775 DynamicDemand              ;
 Junction-466            82.586942257               0 DynamicDemand              ;
 Junction-14701          72.990485564    1.2436005034 DynamicDemand              ;
 Junction-59068          81.272965879   0.24731259198 DynamicDemand              ;
 Junction-1162           131.34790026               0 DynamicDemand              ;
 Junction-474938          124.3125853               0 DynamicDemand              ;
 Junction-472575         91.896325459               0 DynamicDemand              ;
 Junction-15240            156.332021               0 DynamicDemand              ;
 Junction-26328          80.262463911     0.807669066 DynamicDemand              ;
 Junction-26225          140.57580052               0 DynamicDemand              ;
 Junction-729            69.892818241   0.28544846946 DynamicDemand              ;
 Junction-15395          144.12729659   0.51218734199 DynamicDemand              ;
 Junction-478            140.16840551               0 DynamicDemand              ;
 Junction-455964         81.506994751               0 DynamicDemand              ;
 Junction-27706          287.41796588   0.69730326596 DynamicDemand              ;
 Junction-26249          66.029248688    6.5275434774 DynamicDemand              ;
 Junction-455155         196.88626312               0 DynamicDemand              ;
 Junction-472569         111.02362205               0 DynamicDemand              ;
 Junction-591520         224.12237533               0 DynamicDemand              ;
 Junction-1531           164.66535433               0 DynamicDemand              ;
 Junction-2110           115.36526903   0.68676280107 DynamicDemand              ;
 Junction-26050          39.269750656               0 DynamicDemand              ;
 Junction-397            51.476377953               0 DynamicDemand              ;
 Junction-519836         26.992447507     3.136350991 DynamicDemand              ;
 Junction-14241          39.267552493               0 DynamicDemand              ;
 Junction-58993          56.397637795    6.8481004126 DynamicDemand              ;
 Junction-26316          77.460629921    1.3419359081 DynamicDemand              ;
 Junction-50781          118.89763123               0 DynamicDemand              ;
 Junction-36204          79.790026247     2.235386923 DynamicDemand              ;
 Junction-366            39.058402231    1.1588329752 DynamicDemand              ;
 Junction-360            43.707350722               0 DynamicDemand              ;
 Junction-14293          91.699471785               0 DynamicDemand              ;
 Junction-14132          54.726007218               0 DynamicDemand              ;
 Junction-59581           158.8692126               0 DynamicDemand              ;
 Junction-15640           240.4855643               0 DynamicDemand              ;
 Junction-328            52.083307087               0 DynamicDemand              ;
 Junction-51686          275.06562992    4.6137279103 DynamicDemand              ;
 Junction-655            132.02099081    1.5235330604 DynamicDemand              ;
 Junction-473336         52.950282152               0 DynamicDemand              ;
 Junction-14402          137.90462598   0.42489961245 DynamicDemand              ;
 Junction-55936          221.00831693   0.30952511031 DynamicDemand              ;
 Junction-455507         141.63385827    1.7836368631 DynamicDemand              ;
 Junction-26123          106.34973097   0.42139669104 DynamicDemand              ;
 Junction-51691          246.11220472    12.214829624 DynamicDemand              ;
 Junction-456004         81.405839895   0.81117198741 DynamicDemand              ;
 Junction-36185           77.82152231               0 DynamicDemand              ;
 Junction-27272                   125   0.61502423854 DynamicDemand              ;
 Junction-468581          140.5511811    1.2694999314 DynamicDemand              ;
 Junction-457454         113.78730315    5.6320002199 DynamicDemand              ;
 Junction-467933         83.213041339    3.4195645649 DynamicDemand              ;
 Junction-59214          255.85629921   0.73593050346 DynamicDemand              ;
 Junction-1532           163.86154856    0.4705485431 DynamicDemand              ;
 Junction-14276          42.454071522    6.9981078708 DynamicDemand              ;
 Junction-387            67.574363517               0 DynamicDemand              ;
 Junction-44264          69.706909449    2.7375410104 DynamicDemand              ;
 Junction-460             81.24671916   0.69227871353 DynamicDemand              ;
 Junction-14353          139.27474738   0.78157943411 DynamicDemand              ;
 Junction-26382          79.472877297    1.0660134829 DynamicDemand              ;
 Junction-26102          43.615334646    4.4020309945 DynamicDemand              ;
 Junction-51345          258.18218504   0.96669535808 DynamicDemand              ;
 Junction-59052          109.89174213   0.76352591605 DynamicDemand              ;
 Junction-37637          230.46258202    1.7979338546 DynamicDemand              ;
 Junction-26551          114.46851378    2.8112767137 DynamicDemand              ;
 Junction-15634          241.06515748    1.1387664661 DynamicDemand              ;
 Junction-473            139.78018373               0 DynamicDemand              ;
 Junction-51696           184.4160105    2.1531078955 DynamicDemand              ;
 Junction-44287          85.245600394               0 DynamicDemand              ;
 Junction-470            131.49606299    0.9099987522 DynamicDemand              ;
 Junction-466742         45.374015748     3.555734691 DynamicDemand              ;
 Junction-15644          237.74606299    2.6056029206 DynamicDemand              ;
 Junction-27470           233.8828937   0.36270294445 DynamicDemand              ;
 Junction-343            34.826118766   0.88642932169 DynamicDemand              ;
 Junction-14029          44.704107612               0 DynamicDemand              ;
 Junction-15352          82.381889764    21.495162123 DynamicDemand              ;
 Junction-44697          151.31233596               0 DynamicDemand              ;
 Junction-15014          102.16535433               0 DynamicDemand              ;
 Junction-475008         311.29704724               0 DynamicDemand              ;
 Junction-27268          137.69685039    3.2883555899 DynamicDemand              ;
 Junction-14389          64.233375984    3.5191204445 DynamicDemand              ;
 Junction-37636          231.66010499    3.1177902626 DynamicDemand              ;
 Junction-16184          128.79757218               0 DynamicDemand              ;
 Junction-44279          86.909448819               0 DynamicDemand              ;
 Junction-50802          134.79939961    1.0218703329 DynamicDemand              ;
 Junction-26323          74.829393045    1.1623358966 DynamicDemand              ;
 Junction-51334          228.66633858               0 DynamicDemand              ;
 Junction-55569          74.885170604    0.7690418285 DynamicDemand              ;
 Junction-14203          71.931856955               0 DynamicDemand              ;
 Junction-329            51.987486877               0 DynamicDemand              ;
 Junction-14374          122.62139108               0 DynamicDemand              ;
 Junction-14558          132.57874016               0 DynamicDemand              ;
 Junction-14280          49.107608268               0 DynamicDemand              ;
 Junction-513            130.65398294               0 DynamicDemand              ;
 Junction-15665          116.63385827    2.4395549354 DynamicDemand              ;
 Junction-14528          87.526246719   0.54930879879 DynamicDemand              ;
 Junction-61157           231.3757874               0 DynamicDemand              ;
 Junction-44157          40.903018373    4.5189112773 DynamicDemand              ;
 Junction-456846         318.02821522               0 DynamicDemand              ;
 Junction-58976          53.512253937    3.3179481432 DynamicDemand              ;
 Junction-26329          80.763343176   0.89746114659 DynamicDemand              ;
 Junction-36030          104.51542651    6.2566614549 DynamicDemand              ;
 Junction-27484          109.35075459   0.49613096465 DynamicDemand              ;
 Junction-50827          76.665026247    1.3624937772 DynamicDemand              ;
 Junction-14482          118.39895013    1.2320614681 DynamicDemand              ;
 Junction-36292          111.22047244   0.92806812058 DynamicDemand              ;
 Junction-14509           72.81824147    1.8310451796 DynamicDemand              ;
 Junction-14478          67.388448163               0 DynamicDemand              ;
 Junction-455357         64.325124672    8.5122099889 DynamicDemand              ;
 Junction-55647          110.89239829    2.7370338001 DynamicDemand              ;
 Junction-468469         102.09973753               0 DynamicDemand              ;
 Junction-615            72.965879265               0 DynamicDemand              ;
 Junction-26350          104.12565617               0 DynamicDemand              ;
 Junction-15874          129.33070866               0 DynamicDemand              ;
 Junction-456045         198.98379265               0 DynamicDemand              ;
 Junction-854             86.87664042               0 DynamicDemand              ;
 Junction-36361          105.02788714               0 DynamicDemand              ;
 Junction-26538          86.548559711               0 DynamicDemand              ;
 Junction-35857          51.184199475     2.852693608 DynamicDemand              ;
 Junction-27244          255.59931102               0 DynamicDemand              ;
 Junction-56013           259.4324147    0.4705485431 DynamicDemand              ;
 Junction-50864           74.68011811   0.59145480802 DynamicDemand              ;
 Junction-50792          74.721135171   0.68676280107 DynamicDemand              ;
 Junction-1180           143.47933727   0.55282757053 DynamicDemand              ;
 Junction-2764           287.81712598   0.44146320014 DynamicDemand              ;
 Junction-36183          72.944002625   0.57289407963 DynamicDemand              ;
 Junction-468460         114.12401575   0.68245151318 DynamicDemand              ;
 Junction-14352          139.60793963               0 DynamicDemand              ;
 Junction-55650          93.176909449               0 DynamicDemand              ;
 Junction-456050         117.68373688               0 DynamicDemand              ;
 Junction-52329          172.34251969    2.3326286554 DynamicDemand              ;
 Junction-14215          103.18579396    2.9261598558 DynamicDemand              ;
 Junction-477168         83.595800525    4.4725807828 DynamicDemand              ;
 Junction-36275          86.406391076   0.79261125901 DynamicDemand              ;
 Junction-26258          70.519314304    0.2784267763 DynamicDemand              ;
 Junction-626            100.28981299               0 DynamicDemand              ;
 Junction-15248          131.50699475   0.49814395569 DynamicDemand              ;
 Junction-44152          42.605610236               0 DynamicDemand              ;
 Junction-51697          186.31889764    2.2338811423 DynamicDemand              ;
 Junction-475031         192.49450459               0 DynamicDemand              ;
 Junction-516106         95.745846457               0 DynamicDemand              ;
 Junction-591521          234.4488189               0 DynamicDemand              ;
 Junction-475946         308.72705381               0 DynamicDemand              ;
 Junction-44166          41.702168635   0.90800161148 DynamicDemand              ;
 Junction-44303           76.55605643   0.58042298312 DynamicDemand              ;
 Junction-519268         90.731624016               0 DynamicDemand              ;
 Junction-14373          125.34448819               0 DynamicDemand              ;
 Junction-56188          304.01902887               0 DynamicDemand              ;
 Junction-15393          138.61548556               0 DynamicDemand              ;
 Junction-26467          130.95472441               0 DynamicDemand              ;
 Junction-14391          67.539370079               0 DynamicDemand              ;
 Junction-28122          247.73622047               0 DynamicDemand              ;
 Junction-44368          74.475062336    4.4220975036 DynamicDemand              ;
 Junction-36313          109.78783793   0.59145480802 DynamicDemand              ;
 Junction-972            77.116141732               0 DynamicDemand              ;
 Junction-58975          55.226302493    15.234284482 DynamicDemand              ;
 Junction-565            76.673225066   0.42489961245 DynamicDemand              ;
 Junction-51001          182.08661417               0 DynamicDemand              ;
 Junction-16178          305.01968504    4.6162322614 DynamicDemand              ;
 Junction-14317          65.879265092     3.803047283 DynamicDemand              ;
 Junction-26459           111.4938878               0 DynamicDemand              ;
 Junction-472778         90.334458661               0 DynamicDemand              ;
 Junction-472201         92.043963255               0 DynamicDemand              ;
 Junction-26274          130.65398294               0 DynamicDemand              ;
 Junction-1004           113.58267717               0 DynamicDemand              ;
 Junction-36236          133.94028871     0.450482034 DynamicDemand              ;
 Junction-36196          118.38910761               0 DynamicDemand              ;
 Junction-14410          97.145669291    2.2469101079 DynamicDemand              ;
 Junction-55520          48.227470472    8.3952187538 DynamicDemand              ;
 Junction-590492         268.04461942               0 DynamicDemand              ;
 Junction-51082          158.17749344   0.93409124337 DynamicDemand              ;
 Junction-44199           67.43218832               0 DynamicDemand              ;
 Junction-1176           142.90518373               0 DynamicDemand              ;
 Junction-457            75.492125984   0.65918323881 DynamicDemand              ;
 Junction-36031          71.800449475               0 DynamicDemand              ;
 Junction-37118          120.96456693    1.2762204684 DynamicDemand              ;
 Sensor-1                87.696850394    20.555887824 DynamicDemand              ;
 Junction-44942           224.9890748    2.6823501852 DynamicDemand              ;
 Junction-590476         36.089238845               0 DynamicDemand              ;
 Junction-454677         70.434153543    14.405058977 DynamicDemand              ;
 Junction-58972          41.565777559   0.93409124337 DynamicDemand              ;
 Junction-454082         87.550856299    1.8400323128 DynamicDemand              ;
 Junction-59176          134.03324475    2.1571180273 DynamicDemand              ;
 Junction-51068          80.216532152               0 DynamicDemand              ;
 Junction-38376          158.90201444               0 DynamicDemand              ;
 Junction-56021          257.96780184     4.782787457 DynamicDemand              ;
 Junction-14484          118.42739501               0 DynamicDemand              ;
 Junction-26758          89.177887139    2.1626339397 DynamicDemand              ;
 Junction-50942           134.2601706               0 DynamicDemand              ;
 Junction-14718          105.35597113               0 DynamicDemand              ;
 Junction-1154           125.54133858   0.71234522262 DynamicDemand              ;
 Junction-50794           81.57808399   0.36620586586 DynamicDemand              ;
 Junction-26769          81.835088583               0 DynamicDemand              ;
 Junction-456            68.278969816               0 DynamicDemand              ;
 Junction-36368           89.71457021               0 DynamicDemand              ;
 Junction-51462          305.82349081               0 DynamicDemand              ;
 Junction-1562           118.75546916    0.3682188569 DynamicDemand              ;
 Junction-455376         109.68941601   0.61001553642 DynamicDemand              ;
 Junction-2095           225.45931759   0.30400919785 DynamicDemand              ;
 Junction-50936          79.210410105   0.65014855462 DynamicDemand              ;
 Junction-14607          67.995400262   0.63710373867 DynamicDemand              ;
 Junction-44556          111.94225722    1.8094253389 DynamicDemand              ;
 Junction-475378         117.89259186               0 DynamicDemand              ;
 Junction-474702          62.23769357               0 DynamicDemand              ;
 Junction-709            93.848425197   0.82973271581 DynamicDemand              ;
 Junction-44794           139.4794357   0.95916645458 DynamicDemand              ;
 Junction-37294           284.4488353               0 DynamicDemand              ;
 Junction-1820           156.18437008   0.49964973639 DynamicDemand              ;
 Junction-14471          70.602598425   0.83526447859 DynamicDemand              ;
 Junction-1341           153.26442257               0 DynamicDemand              ;
 Junction-455818         133.93208661   0.20316944203 DynamicDemand              ;
 Junction-1509            119.6358399               0 DynamicDemand              ;
 Junction-26141          43.815618438    6.0243908196 DynamicDemand              ;
 Junction-26651          115.14107612   0.49262804324 DynamicDemand              ;
 Junction-55575          140.57304462               0 DynamicDemand              ;
 Junction-864            77.706696194     2.019664025 DynamicDemand              ;
 Junction-37482          292.28180446    1.0675192636 DynamicDemand              ;
 Junction-465534          82.55687664               0 DynamicDemand              ;
 Junction-455864         61.450131234               0 DynamicDemand              ;
 Junction-15859          263.78772966   0.55482471124 DynamicDemand              ;
 Junction-36298          116.79778215   0.66268616022 DynamicDemand              ;
 Junction-457436         58.781341864               0 DynamicDemand              ;
 Junction-454935         131.65319882               0 DynamicDemand              ;
 Junction-455622         199.00325787               0 DynamicDemand              ;
 Junction-1152           112.55415682   0.68826858177 DynamicDemand              ;
 Junction-44234          58.700787402               0 DynamicDemand              ;
 Junction-51695          228.37926509    1.2014703444 DynamicDemand              ;
 Junction-59087            78.1332021   0.32757862837 DynamicDemand              ;
 Junction-14634          109.78783793               0 DynamicDemand              ;
 Junction-14342           75.30347769   0.31504102276 DynamicDemand              ;
 Junction-14994          79.002624672               0 DynamicDemand              ;
 Junction-15882          123.14632546   0.49613096465 DynamicDemand              ;
 Junction-15022          132.27526247    1.4869029636 DynamicDemand              ;
 Junction-15230          137.77888123   0.33158876012 DynamicDemand              ;
 Junction-37791           188.2021063               0 DynamicDemand              ;
 Junction-474926         266.72803806   0.11740334351 DynamicDemand              ;
 Junction-36961          130.66272966    1.2805000556 DynamicDemand              ;
 Junction-455347         103.28165026    2.2619679149 DynamicDemand              ;
 Junction-44185          39.542073491    1.1849067568 DynamicDemand              ;
 Junction-472862         89.332893701    2.4637742291 DynamicDemand              ;
 Junction-14357          139.60629921               0 DynamicDemand              ;
 Junction-37786          244.00698819     1.399123874 DynamicDemand              ;
 Junction-474401         70.997375328               0 DynamicDemand              ;
 Junction-44236          64.468503937               0 DynamicDemand              ;
 Junction-963            78.510498688   0.15752051138 DynamicDemand              ;
 Junction-45257          270.43963255    1.2175267218 DynamicDemand              ;
 Junction-36545          124.21856955   0.86786859329 DynamicDemand              ;
 Junction-1545           145.72397638   0.73593050346 DynamicDemand              ;
 Junction-46335          161.90945538    1.1257216502 DynamicDemand              ;
 Junction-50808          138.04133858               0 DynamicDemand              ;
 Junction-14600          72.974081365               0 DynamicDemand              ;
 Junction-44211          135.91699475               0 DynamicDemand              ;
 Junction-14325          63.440511811               0 DynamicDemand              ;
 Junction-462            81.012142388   0.59898371152 DynamicDemand              ;
 Junction-469992         48.256207349               0 DynamicDemand              ;
 Junction-308            48.574940945               0 DynamicDemand              ;
 Junction-58999          86.358267717   0.54028996492 DynamicDemand              ;
 Junction-44811          135.12138451     1.288758074 DynamicDemand              ;
 Junction-2109           113.53346457    3.1950447376 DynamicDemand              ;
 Junction-36049          52.067332677               0 DynamicDemand              ;
 Junction-59012          126.41076115    2.5433904023 DynamicDemand              ;
 Junction-26270          55.989875328    4.9418137491 DynamicDemand              ;
 Junction-29113          158.98950131               0 DynamicDemand              ;
 Junction-26921          154.29790026               0 DynamicDemand              ;
 Junction-14698          78.731955381   0.72890881031 DynamicDemand              ;
 Junction-14350          139.62434383               0 DynamicDemand              ;
 Junction-37793          197.21128609    7.3482573594 DynamicDemand              ;
 Junction-319            117.39980315               0 DynamicDemand              ;
 Junction-14252          37.057086614    1.9980917352 DynamicDemand              ;
 Junction-26369          72.851049869               0 DynamicDemand              ;
 Junction-15862          254.03543307    1.0911045444 DynamicDemand              ;
 Junction-591466         133.59580052               0 DynamicDemand              ;
 Junction-44308           76.87007874               0 DynamicDemand              ;
 Junction-26455          78.198818898               0 DynamicDemand              ;
 Junction-59259          111.48293963    1.2471192751 DynamicDemand              ;
 Junction-59069          74.146981627   0.56937530789 DynamicDemand              ;
 Junction-27469          233.47004593   0.55834348298 DynamicDemand              ;
 Junction-26290           86.85476706               0 DynamicDemand              ;
 Junction-14398          53.632358924               0 DynamicDemand              ;
 Junction-1528           136.71259843               0 DynamicDemand              ;
 Junction-456042         95.527122703    1.7688326613 DynamicDemand              ;
 Junction-61159          254.91030184   0.97070548983 DynamicDemand              ;
 Junction-26303          88.459645669    0.2984932854 DynamicDemand              ;
 Junction-14304           97.10910105    5.6099841211 DynamicDemand              ;
 Junction-50622           43.11234252               0 DynamicDemand              ;
 Junction-455638         96.737673885               0 DynamicDemand              ;
 Junction-44215          113.62368766     1.162843107 DynamicDemand              ;
 Junction-858            79.609580052   0.56988251823 DynamicDemand              ;
 Junction-36139          132.17957349    6.1618448219 DynamicDemand              ;
 Junction-50776          66.666666667   0.43593143736 DynamicDemand              ;
 Junction-2087           264.31538714    1.1718619408 DynamicDemand              ;
 Junction-468783         226.00085302               0 DynamicDemand              ;
 Junction-477354         95.565400262               0 DynamicDemand              ;
 Junction-456743         60.197395013               0 DynamicDemand              ;
 Junction-15238          150.51399934   0.64813556358 DynamicDemand              ;
 Junction-36300          119.60301837   0.58593889557 DynamicDemand              ;
 Junction-465318         65.881161417               0 DynamicDemand              ;
 Junction-467223         117.26541995   0.56786952719 DynamicDemand              ;
 Junction-44213          119.65223097               0 DynamicDemand              ;
 Junction-519680         90.780839895               0 DynamicDemand              ;
 Junction-59385          261.28608924    1.9338820762 DynamicDemand              ;
 Junction-46338          164.46850394   0.61272594168 DynamicDemand              ;
 Junction-55599          75.740524934   0.54580587738 DynamicDemand              ;
 Junction-1151            124.9015748               0 DynamicDemand              ;
 Junction-455952         81.594488189    0.3682188569 DynamicDemand              ;
 Junction-15657          153.67454068   0.94111293653 DynamicDemand              ;
 Junction-16182          175.94050853               0 DynamicDemand              ;
 Junction-50931           76.24671916     2.642217167 DynamicDemand              ;
 Junction-61998          60.419117454               0 DynamicDemand              ;
 Junction-59015          56.643700787    2.6823501852 DynamicDemand              ;
 Junction-44339          74.256335302               0 DynamicDemand              ;
 Junction-14510          72.703418635               0 DynamicDemand              ;
 Junction-44270          56.036751969    3.8818075386 DynamicDemand              ;
 Junction-15229          122.30971129   0.66469915126 DynamicDemand              ;
 Junction-475043         98.932086614    1.7244517565 DynamicDemand              ;
 Junction-25858           47.78562664               0 DynamicDemand              ;
 Junction-55937          221.48950131   0.87187872504 DynamicDemand              ;
 Junction-55582           70.92519685    5.0516723387 DynamicDemand              ;
 Junction-44699           155.1399836    1.0233761136 DynamicDemand              ;
 Junction-455953         96.489507874               0 DynamicDemand              ;
 Junction-455563         102.23096457               0 DynamicDemand              ;
 Junction-61172          87.808405512               0 DynamicDemand              ;
 Junction-59054          114.07479331               0 DynamicDemand              ;
 Junction-3032           282.64435696               0 DynamicDemand              ;
 Junction-455135         117.09465223    2.8490163331 DynamicDemand              ;
 Junction-748            130.90551181               0 DynamicDemand              ;
 Junction-455366         116.63385827    0.6714355386 DynamicDemand              ;
 Junction-1826           150.31168635               0 DynamicDemand              ;
 Junction-26444          74.715659449    1.4864116036 DynamicDemand              ;
 Junction-477474         75.872703412               0 DynamicDemand              ;
 Junction-14381           113.4535105               0 DynamicDemand              ;
 Junction-44237          64.788385827    4.0925058842 DynamicDemand              ;
 Junction-3802               137.4125   0.65566446707 DynamicDemand              ;
 Junction-61877          65.881666667               0 DynamicDemand              ;
 Junction-26165          52.981463255     2.827333091 DynamicDemand              ;
 Junction-455600         198.08020669               0 DynamicDemand              ;
 Junction-591544         267.10958005               0 DynamicDemand              ;
 Junction-590474         37.066929134               0 DynamicDemand              ;
 Junction-36128          71.141738845    2.0156538933 DynamicDemand              ;
 Junction-36557          121.04110892               0 DynamicDemand              ;
 Junction-44316           103.1496063     2.966292874 DynamicDemand              ;